3OpAmp
R1 1 9 R
R2 9 7 R
R3 3 2 R1
R4 2 o1 R2
R5 5 6 R1
R6 6 o2 R2
V1 3 5 dc 1 ac 1
R7 7 o1 Ro
R8 4 o2 Ro
X1 2 0 1 linearOpamp PARAMS: A_par=A0

.subckt linearOpamp inplus d out PARAMS: A_par=100k
Gm 0 t inplus d {A_par}
Rtoa t 0 1
Ao out 0 t out
.ends linearOpamp

X2 0 6 4 linearOpamp PARAMS: A_par=A0
X3 0 9 7 linearOpamp PARAMS: A_par=A0
C1 o1 o2 10n