
V1 1 0 dc 0 ac 1 0 sin 0 1 1500 0 0
R1 1 2 1k
R2 2 o 10k
X1 o 0 2 idealAmpliferWithGroud
.subckt idealAmpliferWithGroud 1 2 3
A1 1 0 2 3
.ends idealAmpliferWithGroud
C 2 o 10n