
I1 0 1 dc 5m ac 0
R1 1 0 1k
C 1 2 100n IC=5
R2 2 0 3k
X1 0 1 SUstate2
.subckt SUstate2 1 2
Vish 1 2 dc 0
.ends SUstate2