
V1 1 0 dc 0 ac 1 0 sin 0 1 16k 0 0
x1 1 0 2 TR_c PARAMS: L1_c=100m R1_c=1 L2_c=100m R2_c=1 K_c=1
.subckt TR_c i1 g o1 PARAMS: L1_c=1 R1_c=1m L2_c=1 R2_c=1m K_c=1
R i1 o1 1k
C o1 g 10n
.ends TR_c