
V1 2 0 dc 10
R1 1 3 1k
I1 1 0 dc 2m ac 0
R2 4 0 9k
L 3 4 5m IC=-2m
X1 2 1 SUstate2
.subckt SUstate2 1 2
Vish 1 2 dc 0
.ends SUstate2