
A1 1 0 2 3 1G
C1 2 0 1u IC=1
C2 6 1 1u
R1 2 0 1k
R2 2 6 1k
R3 3 0 1k
R4 3 1 2k
I1 0 5 dc 0 ac 1m 0 sin 0 2m 20 0 0
V1 4 0 dc 0 ac 1 0 sin 0 1 20 0 0
X2 4 2 SUstate1
.subckt SUstate1 1 2
.ends SUstate1
X1 5 0 2 SWstate2
.subckt SWstate2 1 2 3
Visw 1 3 dc 0
.ends SWstate2